13
Coordinates from ORCA-job PBE_excited
  C          -0.02705787609866     -1.86214696269581      0.00303940578589
  C           0.03672413175970     -1.12207944830625      1.18452828982354
  C           0.10189003312396      0.26742709525885      1.11907508485244
  C           0.10523317097478      0.94535396738549     -0.11295521784673
  C           0.04059217369851      0.18884311285097     -1.28982267998135
  C          -0.02489572969630     -1.20139202998021     -1.22905064940789
  H          -0.07823544512947     -2.95017150441283      0.04955521586775
  H           0.03636137530936     -1.61280542937935      2.15801962040412
  H           0.04308340874814      0.71862655355416     -2.24331335247240
  H          -0.07482518183562     -1.77461379360371     -2.15597211087877
  O           0.16842493664599      2.29923635838905     -0.20207325970617
  H           0.20776053547834      2.64997833976228      0.71232906940613
  Cl          0.18269769702125      1.23055813117735      2.57844014415343
