384
H24 O12
 H    2.515435    0.000000    1.403078
 H   -5.088132   13.169763    1.403078
 H    2.515435    0.000000    8.546040
 H   -5.088132   13.169763    8.546040
 H   -1.286348    6.584881    1.403078
 H   -1.286348    6.584881    8.546040
 H   10.119001    0.000000    1.403078
 H    2.515435   13.169763    1.403078
 H   10.119001    0.000000    8.546040
 H    2.515435   13.169763    8.546040
 H    6.317218    6.584881    1.403078
 H    6.317218    6.584881    8.546040
 H   -1.257717    2.178430    1.403078
 H   13.949415    2.178430    1.403078
 H   -1.257717    2.178430    8.546040
 H   13.949415    2.178430    8.546040
 H   -5.059500    8.763312    1.403078
 H   10.147632    8.763312    1.403078
 H   -5.059500    8.763312    8.546040
 H   10.147632    8.763312    8.546040
 H    6.345849    2.178430    1.403078
 H    6.345849    2.178430    8.546040
 H    2.544066    8.763312    1.403078
 H    2.544066    8.763312    8.546040
 H    2.544066    4.406451    1.403078
 H    2.544066    4.406451    8.546040
 H   -1.257717   10.991333    1.403078
 H   -1.257717   10.991333    8.546040
 H   10.147632    4.406451    1.403078
 H   10.147632    4.406451    8.546040
 H    6.345849   10.991333    1.403078
 H    6.345849   10.991333    8.546040
 H    5.088132    0.000000    4.974559
 H   -2.515435   13.169763    4.974559
 H    5.088132    0.000000   12.117521
 H   -2.515435   13.169763   12.117521
 H    1.286348    6.584881    4.974559
 H    1.286348    6.584881   12.117521
 H   12.691698    0.000000    4.974559
 H    5.088132   13.169763    4.974559
 H   12.691698    0.000000   12.117521
 H    5.088132   13.169763   12.117521
 H    8.889915    6.584881    4.974559
 H    8.889915    6.584881   12.117521
 H   -2.544066    4.406451    4.974559
 H   12.663067    4.406451    4.974559
 H   -2.544066    4.406451   12.117521
 H   12.663067    4.406451   12.117521
 H   -6.345849   10.991333    4.974559
 H    8.861283   10.991333    4.974559
 H   -6.345849   10.991333   12.117521
 H    8.861283   10.991333   12.117521
 H    5.059500    4.406451    4.974559
 H    5.059500    4.406451   12.117521
 H    1.257717   10.991333    4.974559
 H    1.257717   10.991333   12.117521
 H    1.257717    2.178430    4.974559
 H    1.257717    2.178430   12.117521
 H   -2.544066    8.763312    4.974559
 H   -2.544066    8.763312   12.117521
 H    8.861283    2.178430    4.974559
 H    8.861283    2.178430   12.117521
 H    5.059500    8.763312    4.974559
 H    5.059500    8.763312   12.117521
 H    3.439450    0.000000    0.076044
 H   -4.164116   13.169763    0.076044
 H    3.439450    0.000000    7.219006
 H   -4.164116   13.169763    7.219006
 H   -0.362333    6.584881    0.076044
 H   -0.362333    6.584881    7.219006
 H   11.043017    0.000000    0.076044
 H    3.439450   13.169763    0.076044
 H   11.043017    0.000000    7.219006
 H    3.439450   13.169763    7.219006
 H    7.241234    6.584881    0.076044
 H    7.241234    6.584881    7.219006
 H   -1.719725    2.978651    0.076044
 H   13.487407    2.978651    0.076044
 H   -1.719725    2.978651    7.219006
 H   13.487407    2.978651    7.219006
 H   -5.521508    9.563533    0.076044
 H    9.685624    9.563533    0.076044
 H   -5.521508    9.563533    7.219006
 H    9.685624    9.563533    7.219006
 H    5.883841    2.978651    0.076044
 H    5.883841    2.978651    7.219006
 H    2.082058    9.563533    0.076044
 H    2.082058    9.563533    7.219006
 H    2.082058    3.606230    0.076044
 H    2.082058    3.606230    7.219006
 H   -1.719725   10.191112    0.076044
 H   -1.719725   10.191112    7.219006
 H    9.685624    3.606230    0.076044
 H    9.685624    3.606230    7.219006
 H    5.883841   10.191112    0.076044
 H    5.883841   10.191112    7.219006
 H    4.164116    0.000000    3.647525
 H   -3.439450   13.169763    3.647525
 H    4.164116    0.000000   10.790487
 H   -3.439450   13.169763   10.790487
 H    0.362333    6.584881    3.647525
 H    0.362333    6.584881   10.790487
 H   11.767682    0.000000    3.647525
 H    4.164116   13.169763    3.647525
 H   11.767682    0.000000   10.790487
 H    4.164116   13.169763   10.790487
 H    7.965899    6.584881    3.647525
 H    7.965899    6.584881   10.790487
 H   -2.082058    3.606230    3.647525
 H   13.125074    3.606230    3.647525
 H   -2.082058    3.606230   10.790487
 H   13.125074    3.606230   10.790487
 H   -5.883841   10.191112    3.647525
 H    9.323291   10.191112    3.647525
 H   -5.883841   10.191112   10.790487
 H    9.323291   10.191112   10.790487
 H    5.521508    3.606230    3.647525
 H    5.521508    3.606230   10.790487
 H    1.719725   10.191112    3.647525
 H    1.719725   10.191112   10.790487
 H    1.719725    2.978651    3.647525
 H    1.719725    2.978651   10.790487
 H   -2.082058    9.563533    3.647525
 H   -2.082058    9.563533   10.790487
 H    9.323291    2.978651    3.647525
 H    9.323291    2.978651   10.790487
 H    5.521508    9.563533    3.647525
 H    5.521508    9.563533   10.790487
 H    1.710373    5.778530    6.991867
 H    1.710373    5.778530   14.134829
 H   -2.091410   12.363411    6.991867
 H   -2.091410   12.363411   14.134829
 H    9.313939    5.778530    6.991867
 H    9.313939    5.778530   14.134829
 H    5.512156   12.363411    6.991867
 H    5.512156   12.363411   14.134829
 H   -2.057757    5.176843    6.991867
 H   -2.057757    5.176843   14.134829
 H   -5.859540   11.761724    6.991867
 H   -5.859540   11.761724   14.134829
 H    5.545809    5.176843    6.991867
 H    5.545809    5.176843   14.134829
 H    1.744026   11.761724    6.991867
 H    1.744026   11.761724   14.134829
 H    0.347384    2.214390    6.991867
 H    0.347384    2.214390   14.134829
 H   -3.454399    8.799272    6.991867
 H   -3.454399    8.799272   14.134829
 H    7.950950    2.214390    6.991867
 H    7.950950    2.214390   14.134829
 H    4.149167    8.799272    6.991867
 H    4.149167    8.799272   14.134829
 H    5.512156    0.806352    6.991867
 H    5.512156    0.806352   14.134829
 H    1.710373    7.391233    6.991867
 H    1.710373    7.391233   14.134829
 H   13.115722    0.806352    6.991867
 H   13.115722    0.806352   14.134829
 H    9.313939    7.391233    6.991867
 H    9.313939    7.391233   14.134829
 H    1.744026    1.408039    6.991867
 H    1.744026    1.408039   14.134829
 H   -2.057757    7.992920    6.991867
 H   -2.057757    7.992920   14.134829
 H    9.347592    1.408039    6.991867
 H    9.347592    1.408039   14.134829
 H    5.545809    7.992920    6.991867
 H    5.545809    7.992920   14.134829
 H    4.149167    4.370491    6.991867
 H    4.149167    4.370491   14.134829
 H    0.347384   10.955373    6.991867
 H    0.347384   10.955373   14.134829
 H   11.752733    4.370491    6.991867
 H   11.752733    4.370491   14.134829
 H    7.950950   10.955373    6.991867
 H    7.950950   10.955373   14.134829
 H    2.091410    0.806352    3.420386
 H    2.091410    0.806352   10.563348
 H   -1.710373    7.391233    3.420386
 H   -1.710373    7.391233   10.563348
 H    9.694977    0.806352    3.420386
 H    9.694977    0.806352   10.563348
 H    5.893193    7.391233    3.420386
 H    5.893193    7.391233   10.563348
 H    5.859540    1.408039    3.420386
 H    5.859540    1.408039   10.563348
 H    2.057757    7.992920    3.420386
 H    2.057757    7.992920   10.563348
 H   13.463106    1.408039    3.420386
 H   13.463106    1.408039   10.563348
 H    9.661323    7.992920    3.420386
 H    9.661323    7.992920   10.563348
 H    3.454399    4.370491    3.420386
 H    3.454399    4.370491   10.563348
 H   -0.347384   10.955373    3.420386
 H   -0.347384   10.955373   10.563348
 H   11.057965    4.370491    3.420386
 H   11.057965    4.370491   10.563348
 H    7.256182   10.955373    3.420386
 H    7.256182   10.955373   10.563348
 H   -1.710373    5.778530    3.420386
 H   -1.710373    5.778530   10.563348
 H   -5.512156   12.363411    3.420386
 H   -5.512156   12.363411   10.563348
 H    5.893193    5.778530    3.420386
 H    5.893193    5.778530   10.563348
 H    2.091410   12.363411    3.420386
 H    2.091410   12.363411   10.563348
 H    2.057757    5.176843    3.420386
 H    2.057757    5.176843   10.563348
 H   -1.744026   11.761724    3.420386
 H   -1.744026   11.761724   10.563348
 H    9.661323    5.176843    3.420386
 H    9.661323    5.176843   10.563348
 H    5.859540   11.761724    3.420386
 H    5.859540   11.761724   10.563348
 H   -0.347384    2.214390    3.420386
 H   -0.347384    2.214390   10.563348
 H   -4.149167    8.799272    3.420386
 H   -4.149167    8.799272   10.563348
 H    7.256182    2.214390    3.420386
 H    7.256182    2.214390   10.563348
 H    3.454399    8.799272    3.420386
 H    3.454399    8.799272   10.563348
 O    2.483644    0.000000    0.397563
 O   -5.119922   13.169763    0.397563
 O    2.483644    0.000000    7.540525
 O   -5.119922   13.169763    7.540525
 O   -1.318139    6.584881    0.397563
 O   -1.318139    6.584881    7.540525
 O   10.087210    0.000000    0.397563
 O    2.483644   13.169763    0.397563
 O   10.087210    0.000000    7.540525
 O    2.483644   13.169763    7.540525
 O    6.285427    6.584881    0.397563
 O    6.285427    6.584881    7.540525
 O   -1.241822    2.150899    0.397563
 O   13.965310    2.150899    0.397563
 O   -1.241822    2.150899    7.540525
 O   13.965310    2.150899    7.540525
 O   -5.043605    8.735780    0.397563
 O   10.163527    8.735780    0.397563
 O   -5.043605    8.735780    7.540525
 O   10.163527    8.735780    7.540525
 O    6.361744    2.150899    0.397563
 O    6.361744    2.150899    7.540525
 O    2.559961    8.735780    0.397563
 O    2.559961    8.735780    7.540525
 O    2.559961    4.433983    0.397563
 O    2.559961    4.433983    7.540525
 O   -1.241822   11.018864    0.397563
 O   -1.241822   11.018864    7.540525
 O   10.163527    4.433983    0.397563
 O   10.163527    4.433983    7.540525
 O    6.361744   11.018864    0.397563
 O    6.361744   11.018864    7.540525
 O    5.119922    0.000000    3.969044
 O   -2.483644   13.169763    3.969044
 O    5.119922    0.000000   11.112006
 O   -2.483644   13.169763   11.112006
 O    1.318139    6.584881    3.969044
 O    1.318139    6.584881   11.112006
 O   12.723488    0.000000    3.969044
 O    5.119922   13.169763    3.969044
 O   12.723488    0.000000   11.112006
 O    5.119922   13.169763   11.112006
 O    8.921705    6.584881    3.969044
 O    8.921705    6.584881   11.112006
 O   -2.559961    4.433983    3.969044
 O   12.647171    4.433983    3.969044
 O   -2.559961    4.433983   11.112006
 O   12.647171    4.433983   11.112006
 O   -6.361744   11.018864    3.969044
 O    8.845388   11.018864    3.969044
 O   -6.361744   11.018864   11.112006
 O    8.845388   11.018864   11.112006
 O    5.043605    4.433983    3.969044
 O    5.043605    4.433983   11.112006
 O    1.241822   11.018864    3.969044
 O    1.241822   11.018864   11.112006
 O    1.241822    2.150899    3.969044
 O    1.241822    2.150899   11.112006
 O   -2.559961    8.735780    3.969044
 O   -2.559961    8.735780   11.112006
 O    8.845388    2.150899    3.969044
 O    8.845388    2.150899   11.112006
 O    5.043605    8.735780    3.969044
 O    5.043605    8.735780   11.112006
 O    5.022954    0.000000    6.639919
 O   -2.580612   13.169763    6.639919
 O    5.022954    0.000000   13.782881
 O   -2.580612   13.169763   13.782881
 O    1.221171    6.584881    6.639919
 O    1.221171    6.584881   13.782881
 O   12.626520    0.000000    6.639919
 O    5.022954   13.169763    6.639919
 O   12.626520    0.000000   13.782881
 O    5.022954   13.169763   13.782881
 O    8.824737    6.584881    6.639919
 O    8.824737    6.584881   13.782881
 O   -2.511477    4.350006    6.639919
 O   12.695655    4.350006    6.639919
 O   -2.511477    4.350006   13.782881
 O   12.695655    4.350006   13.782881
 O   -6.313260   10.934887    6.639919
 O    8.893872   10.934887    6.639919
 O   -6.313260   10.934887   13.782881
 O    8.893872   10.934887   13.782881
 O    5.092089    4.350006    6.639919
 O    5.092089    4.350006   13.782881
 O    1.290306   10.934887    6.639919
 O    1.290306   10.934887   13.782881
 O    1.290306    2.234876    6.639919
 O    1.290306    2.234876   13.782881
 O   -2.511477    8.819757    6.639919
 O   -2.511477    8.819757   13.782881
 O    8.893872    2.234876    6.639919
 O    8.893872    2.234876   13.782881
 O    5.092089    8.819757    6.639919
 O    5.092089    8.819757   13.782881
 O    2.580612    0.000000    3.068438
 O   -5.022954   13.169763    3.068438
 O    2.580612    0.000000   10.211400
 O   -5.022954   13.169763   10.211400
 O   -1.221171    6.584881    3.068438
 O   -1.221171    6.584881   10.211400
 O   10.184178    0.000000    3.068438
 O    2.580612   13.169763    3.068438
 O   10.184178    0.000000   10.211400
 O    2.580612   13.169763   10.211400
 O    6.382395    6.584881    3.068438
 O    6.382395    6.584881   10.211400
 O   -1.290306    2.234876    3.068438
 O   13.916826    2.234876    3.068438
 O   -1.290306    2.234876   10.211400
 O   13.916826    2.234876   10.211400
 O   -5.092089    8.819757    3.068438
 O   10.115043    8.819757    3.068438
 O   -5.092089    8.819757   10.211400
 O   10.115043    8.819757   10.211400
 O    6.313260    2.234876    3.068438
 O    6.313260    2.234876   10.211400
 O    2.511477    8.819757    3.068438
 O    2.511477    8.819757   10.211400
 O    2.511477    4.350006    3.068438
 O    2.511477    4.350006   10.211400
 O   -1.290306   10.934887    3.068438
 O   -1.290306   10.934887   10.211400
 O   10.115043    4.350006    3.068438
 O   10.115043    4.350006   10.211400
 O    6.313260   10.934887    3.068438
 O    6.313260   10.934887   10.211400
 H    5.512156   -0.806352    6.991867
 H   -2.091410   13.976115    6.991867
 H    5.512156   -0.806352   14.134829
 H   -2.091410   13.976115   14.134829
 H   13.115722   -0.806352    6.991867
 H    5.512156   13.976115    6.991867
 H   13.115722   -0.806352   14.134829
 H    5.512156   13.976115   14.134829
 H   -3.454399    4.370491    6.991867
 H   13.149375    5.176843    6.991867
 H   -3.454399    4.370491   14.134829
 H   13.149375    5.176843   14.134829
 H   -7.256182   10.955373    6.991867
 H    9.347592   11.761724    6.991867
 H   -7.256182   10.955373   14.134829
 H    9.347592   11.761724   14.134829
 H    2.091410   -0.806352    3.420386
 H   -5.512156   13.976115    3.420386
 H    2.091410   -0.806352   10.563348
 H   -5.512156   13.976115   10.563348
 H    9.694976   -0.806352    3.420386
 H    2.091410   13.976115    3.420386
 H    9.694976   -0.806352   10.563348
 H    2.091410   13.976115   10.563348
 H   -1.744026    1.408039    3.420386
 H   14.859748    2.214390    3.420386
 H   -1.744026    1.408039   10.563348
 H   14.859748    2.214390   10.563348
 H   -5.545809    7.992920    3.420386
 H   11.057965    8.799272    3.420386
 H   -5.545809    7.992920   10.563348
 H   11.057965    8.799272   10.563348
